# generated using pymatgen
data_KNa2LiTi2Fe2(SiO3)8
_symmetry_space_group_name_H-M   'P 1'
_cell_length_a   10.47850126
_cell_length_b   10.47850126
_cell_length_c   10.09955815
_cell_angle_alpha   70.17293393
_cell_angle_beta   109.82706607
_cell_angle_gamma   104.64069673
_symmetry_Int_Tables_number   1
_chemical_formula_structural   KNa2LiTi2Fe2(SiO3)8
_chemical_formula_sum   'K2 Na4 Li2 Ti4 Fe4 Si16 O48'
_cell_volume   969.39088618
_cell_formula_units_Z   2
loop_
 _symmetry_equiv_pos_site_id
 _symmetry_equiv_pos_as_xyz
  1  'x, y, z'
loop_
 _atom_site_type_symbol
 _atom_site_label
 _atom_site_symmetry_multiplicity
 _atom_site_fract_x
 _atom_site_fract_y
 _atom_site_fract_z
 _atom_site_occupancy
  K  K0  1  0.41817200  0.41598100  0.74512900  1
  K  K1  1  0.58401900  0.58182800  0.24512900  1
  Na  Na2  1  0.93824700  0.46509700  0.68804600  1
  Na  Na3  1  0.53490300  0.06175300  0.18804600  1
  Na  Na4  1  0.05892200  0.53697900  0.28945300  1
  Na  Na5  1  0.46302100  0.94107800  0.78945300  1
  Li  Li6  1  0.93307600  0.93854600  0.73492600  1
  Li  Li7  1  0.06145400  0.06692400  0.23492600  1
  Ti  Ti8  1  0.98320700  0.66919500  0.88962600  1
  Ti  Ti9  1  0.33080500  0.01679300  0.38962600  1
  Ti  Ti10  1  0.96215300  0.13980200  0.87769300  1
  Ti  Ti11  1  0.86019800  0.03784700  0.37769300  1
  Fe  Fe12  1  0.02096700  0.34366300  0.09278200  1
  Fe  Fe13  1  0.65633700  0.97903300  0.59278200  1
  Fe  Fe14  1  0.02942000  0.85209900  0.10724700  1
  Fe  Fe15  1  0.14790100  0.97058000  0.60724700  1
  Si  Si16  1  0.26024900  0.55174300  0.93360700  1
  Si  Si17  1  0.44825700  0.73975100  0.43360700  1
  Si  Si18  1  0.74060100  0.45122800  0.05241700  1
  Si  Si19  1  0.54877200  0.25939900  0.55241700  1
  Si  Si20  1  0.70516200  0.75104800  0.91176600  1
  Si  Si21  1  0.24895200  0.29483800  0.41176600  1
  Si  Si22  1  0.28950800  0.24587400  0.07841100  1
  Si  Si23  1  0.75412600  0.71049200  0.57841100  1
  Si  Si24  1  0.70345000  0.24309100  0.88355800  1
  Si  Si25  1  0.75690900  0.29655000  0.38355800  1
  Si  Si26  1  0.29445400  0.75107200  0.10480700  1
  Si  Si27  1  0.24892800  0.70554600  0.60480700  1
  Si  Si28  1  0.25385400  0.04102200  0.91536300  1
  Si  Si29  1  0.95897800  0.74614600  0.41536300  1
  Si  Si30  1  0.74886600  0.95943400  0.07712000  1
  Si  Si31  1  0.04056600  0.25113400  0.57712000  1
  O  O32  1  0.09304000  0.00725300  0.92280000  1
  O  O33  1  0.99274700  0.90696000  0.42280000  1
  O  O34  1  0.90640400  0.00733500  0.06469200  1
  O  O35  1  0.99266500  0.09359600  0.56469200  1
  O  O36  1  0.87080100  0.77771400  0.92446100  1
  O  O37  1  0.22228600  0.12919900  0.42446100  1
  O  O38  1  0.12552900  0.21281800  0.06115000  1
  O  O39  1  0.78718200  0.87447100  0.56115000  1
  O  O40  1  0.05524800  0.27168200  0.73522500  1
  O  O41  1  0.72831800  0.94475200  0.23522500  1
  O  O42  1  0.94521500  0.72067000  0.26343600  1
  O  O43  1  0.27933000  0.05478500  0.76343600  1
  O  O44  1  0.06043600  0.80255200  0.77071900  1
  O  O45  1  0.19744800  0.93956400  0.27071900  1
  O  O46  1  0.92883600  0.17365300  0.25294300  1
  O  O47  1  0.82634700  0.07116400  0.75294300  1
  O  O48  1  0.86640400  0.27769100  0.89351200  1
  O  O49  1  0.72230900  0.13359600  0.39351200  1
  O  O50  1  0.13085800  0.70959200  0.08577400  1
  O  O51  1  0.29040800  0.86914200  0.58577400  1
  O  O52  1  0.65330800  0.07851800  0.95572200  1
  O  O53  1  0.92148200  0.34669200  0.45572200  1
  O  O54  1  0.34009500  0.91788800  0.04340300  1
  O  O55  1  0.08211200  0.65990500  0.54340300  1
  O  O56  1  0.09584200  0.52451100  0.91576200  1
  O  O57  1  0.47548900  0.90415800  0.41576200  1
  O  O58  1  0.90142800  0.48904000  0.06047400  1
  O  O59  1  0.51096000  0.09857200  0.56047400  1
  O  O60  1  0.66245900  0.32953400  0.96866600  1
  O  O61  1  0.67046600  0.33754100  0.46866600  1
  O  O62  1  0.34301700  0.67110200  0.01852700  1
  O  O63  1  0.32889800  0.65698300  0.51852700  1
  O  O64  1  0.29211600  0.60747200  0.77332900  1
  O  O65  1  0.39252800  0.70788400  0.27332900  1
  O  O66  1  0.71314400  0.39270200  0.21532700  1
  O  O67  1  0.60729800  0.28685600  0.71532700  1
  O  O68  1  0.82069700  0.61289600  0.74207400  1
  O  O69  1  0.38710400  0.17930300  0.24207400  1
  O  O70  1  0.18581900  0.39341900  0.25430100  1
  O  O71  1  0.60658100  0.81418100  0.75430100  1
  O  O72  1  0.65676800  0.58233800  0.97202500  1
  O  O73  1  0.41766200  0.34323200  0.47202500  1
  O  O74  1  0.33606300  0.41479300  0.01976900  1
  O  O75  1  0.58520700  0.66393700  0.51976900  1
  O  O76  1  0.32995300  0.18172800  0.96970900  1
  O  O77  1  0.81827200  0.67004700  0.46970900  1
  O  O78  1  0.67999700  0.81540800  0.03109500  1
  O  O79  1  0.18459200  0.32000300  0.53109500  1
